51
Coordinates from ORCA-job low
  C   -1.83756463971757      2.36339718358006      2.97836136184629
  C   -1.82416361595791      3.17513301347179      1.85773729473253
  C   -1.74219782724452      2.58737692704751      0.57239166171646
  C   -1.72897043696677      3.33599209279888     -0.65429841167136
  C   -1.64431081881314      2.70511913343096     -1.86308652074179
  C   -1.53534454315233      1.27343187876321     -1.94946655962993
  C   -1.41502658139620      0.57492630150611     -3.17330901718790
  C   -1.28028212664109     -0.80161123934749     -3.15694387140702
  C   -1.25789290823580     -1.47417932073707     -1.92018070469294
  N   -1.38668254874739     -0.84622702889289     -0.75726596862975
  C   -1.53323953492157      0.50566026254996     -0.75427033621682
  C   -1.67259896478025      1.17122580531575      0.52000293079857
  N   -1.72771555940076      0.39307856807178      1.62140725820666
  C   -1.79525238580380      0.96029777311632      2.81568629022312
  H   -1.88869745930400      2.78845105497879      3.98296860006877
  H   -1.87199216905662      4.26400837210685      1.95156925232335
  H   -1.79369027860437      4.42636940513736     -0.60124076320639
  H   -1.64342436175527      3.28211383382528     -2.79134126054755
  H   -1.41972177725777      1.12954309530177     -4.11576088246129
  H   -1.17327149986046     -1.37353770269883     -4.08066664040737
  H   -1.11600423629043     -2.55635275456415     -1.87271753791748
  H   -1.81629472021244      0.28335879924915      3.67635343912999
  C   0.20025078157470     -5.93575609479537      0.04940153379405
  C   -1.00028999397834     -6.61807104544805     -0.02769090637172
  C   -2.21543969872420     -5.90751336347818      0.12217294922139
  C   -3.51326664593311     -6.51867935215799      0.04347814656691
  C   -4.65023224622278     -5.77720319196637      0.19385299922412
  C   -4.58677881074728     -4.36654091756686      0.46639635764345
  C   -5.73376126095951     -3.56238179385434      0.65760067828013
  C   -5.57947213600744     -2.21889945316504      0.94489221340298
  C   -4.28092128651372     -1.68421007134851      1.04580957206592
  N   -3.18730162167200     -2.41097281000151      0.85457798871071
  C   -3.31856489817828     -3.73259848736649      0.56105763936939
  C   -2.11771629107037     -4.51084521103506      0.35525062753012
  N   -0.93869743191782     -3.85497864498054      0.39036626211422
  C   0.18921534269796     -4.53756957606804      0.25510113857716
  H   1.15469060361301     -6.45500084244969     -0.05774098267772
  H   -1.02652377620850     -7.69647211872492     -0.20812717160542
  H   -3.57422607613629     -7.59230212975969     -0.15419821504042
  H   -5.63351441060811     -6.24904535775745      0.11860219603655
  H   -6.72721649331398     -4.01351470774113      0.58511900893173
  H   -6.44184715152952     -1.57124965849448      1.11196202961931
  H   -4.12558223738617     -0.63487424858904      1.30619769106581
  H   1.12329779765108     -3.96781375422919      0.30718552014920
  Co  -1.28180838499263     -1.72795358317788      1.06435291132184
  C   1.77114524609015     -1.52985221214823      0.87942056386480
  N   0.61619292711179     -1.35460517430546      1.07230390861255
  S   3.34951371309322     -1.79188894619215      0.58553068290510
  C   -1.50596494210882     -2.47064460298302      4.05569353427837
  N   -1.33773578673918     -2.30827441571498      2.89535243516736
  S   -1.75919583676322     -2.67471368851121      5.64858907291394
